omf/static/testFiles/3300 bus feeder with pv and storage/MasterNewNames5hr_clean.dss


!!!master.dss
clear
new object=circuit.feeder_rdt1527_dash_rhs0_1247x

! Non-alpha-numeric, non-underscore characters in object names of original.dss have been changed by following scheme:
! . -> _dot_
! ( -> _op_
! ) -> _cp_
! - -> _dash_
! : -> _col_
! / -> _fs_
! # -> _num_

! redirect vsource.dss
! redirect linecode.dss
! redirect loadshape.dss
! redirect growthshape.dss
! redirect xycurve.dss
! redirect tcc_curve.dss
! redirect spectrum.dss
! redirect line.dss
! redirect load.dss
! redirect transformer.dss
! redirect regcontrol.dss
! redirect storage.dss
! redirect fuse.dss
! redirect pvsystem.dss
! redirect invcontrol.dss
! makebuslist
! redirect busvoltagebases.dss ! set voltage bases
! buscoords buscoords.dss
! giscoords giscoords.dss


!!!loadshape.dss
new object=loadshape.default npts=24 interval=1 mult=[0.677,0.6256,0.6087,0.5833,0.58028,0.6025,0.657,0.7477,0.832,0.88,0.94,0.989,0.985,0.98,0.9898,0.999,1,0.958,0.936,0.913,0.876,0.876,0.828,0.756]
new object=loadshape.gso_36_dot_1751__dash_79_dot_7183_45_225 npts=5 interval=1 mult=[0,0.01451,0.10866,0.35557,0.59557]
new object=loadshape.gso_36_dot_2120__dash_79_dot_7183_35_135 npts=5 interval=1 mult=[0,0.16156,0.61364,0.82327,0.90204]
new object=loadshape.gso_36_dot_1751__dash_79_dot_7183_15_225 npts=5 interval=1 mult=[0,0.01671,0.17333,0.38245,0.55942]
new object=loadshape.gso_36_dot_2489__dash_79_dot_7183_25_180 npts=5 interval=1 mult=[0,0.07562,0.39312,0.63374,0.79992]
new object=loadshape.gso_36_dot_1751__dash_79_dot_7183_35_270 npts=5 interval=1 mult=[0,0.01546,0.0387,0.04785,0.20747]
new object=loadshape.gso_36_dot_2120__dash_79_dot_7183_15_225 npts=5 interval=1 mult=[0,0.0172,0.17356,0.38157,0.55593]
new object=loadshape.gso_36_dot_1751__dash_79_dot_7183_45_135 npts=5 interval=1 mult=[0,0.20093,0.70023,0.9101,0.97527]
new object=loadshape.gso_36_dot_2120__dash_79_dot_7183_35_90 npts=5 interval=1 mult=[0,0.14644,0.51045,0.63334,0.63908]
new object=loadshape.gso_36_dot_2120__dash_79_dot_7183_35_180 npts=5 interval=1 mult=[0,0.09576,0.45759,0.71568,0.88415]
new object=loadshape.gso_36_dot_2120__dash_79_dot_7183_45_270 npts=5 interval=1 mult=[0,0.01494,0.04117,0.05183,0.11158]
new object=loadshape.gso_36_dot_2120__dash_79_dot_7183_25_90 npts=5 interval=1 mult=[0,0.11562,0.43305,0.57396,0.61554]
new object=loadshape.gso_36_dot_2120__dash_79_dot_7183_25_180 npts=5 interval=1 mult=[0,0.07828,0.3941,0.63463,0.7961]
new object=loadshape.gso_36_dot_1751__dash_79_dot_7183_15_135 npts=5 interval=1 mult=[0,0.09182,0.38986,0.58542,0.6984]
new object=loadshape.gso_36_dot_1751__dash_79_dot_7183_25_90 npts=5 interval=1 mult=[0,0.12058,0.43278,0.57492,0.6194]
new object=loadshape.gso_36_dot_1751__dash_79_dot_7183_35_90 npts=5 interval=1 mult=[0,0.15313,0.51015,0.63428,0.64304]
new object=loadshape.gso_36_dot_2120__dash_79_dot_7183_45_180 npts=5 interval=1 mult=[0,0.11059,0.50824,0.77659,0.94747]
new object=loadshape.gso_36_dot_2120__dash_79_dot_7183_25_270 npts=5 interval=1 mult=[0,0.01668,0.03707,0.1054,0.29652]
new object=loadshape.gso_36_dot_2489__dash_79_dot_7183_35_180 npts=5 interval=1 mult=[0,0.09233,0.4566,0.71483,0.88853]
new object=loadshape.gso_36_dot_1751__dash_79_dot_7183_15_180 npts=5 interval=1 mult=[0,0.06052,0.31944,0.53684,0.69026]
new object=loadshape.gso_36_dot_1751__dash_79_dot_7183_45_270 npts=5 interval=1 mult=[0,0.01451,0.04072,0.05222,0.11232]
new object=loadshape.gso_36_dot_2120__dash_79_dot_7183_15_135 npts=5 interval=1 mult=[0,0.08838,0.39013,0.58448,0.69408]
new object=loadshape.gso_36_dot_1751__dash_79_dot_7183_35_180 npts=5 interval=1 mult=[0,0.09969,0.45725,0.71652,0.88941]
new object=loadshape.gso_36_dot_1751__dash_79_dot_7183_45_180 npts=5 interval=1 mult=[0,0.1154,0.50786,0.77738,0.95302]
new object=loadshape.gso_36_dot_2120__dash_79_dot_7183_45_135 npts=5 interval=1 mult=[0,0.19172,0.70062,0.90923,0.96953]
new object=loadshape.gso_36_dot_2120__dash_79_dot_7183_15_270 npts=5 interval=1 mult=[0,0.0172,0.03729,0.21182,0.38005]
new object=loadshape.gso_36_dot_1751__dash_79_dot_7183_35_135 npts=5 interval=1 mult=[0,0.16907,0.61329,0.82418,0.90746]
new object=loadshape.gso_36_dot_2120__dash_79_dot_7183_25_135 npts=5 interval=1 mult=[0,0.12676,0.50909,0.71391,0.80929]
new object=loadshape.gso_36_dot_2120__dash_79_dot_7183_15_90 npts=5 interval=1 mult=[0,0.08155,0.34356,0.49877,0.57542]
new object=loadshape.gso_36_dot_1751__dash_79_dot_7183_15_270 npts=5 interval=1 mult=[0,0.01671,0.0371,0.21268,0.38254]
new object=loadshape.gso_36_dot_2120__dash_79_dot_7183_25_225 npts=5 interval=1 mult=[0,0.01668,0.15546,0.38258,0.58371]
new object=loadshape.gso_36_dot_2120__dash_79_dot_7183_35_225 npts=5 interval=1 mult=[0,0.01592,0.1337,0.37359,0.59589]
new object=loadshape.gso_36_dot_2120__dash_79_dot_7183_45_90 npts=5 interval=1 mult=[0,0.17308,0.5734,0.67508,0.64535]
new object=loadshape.gso_36_dot_2489__dash_79_dot_7183_15_180 npts=5 interval=1 mult=[0,0.05687,0.31875,0.53501,0.68914]
new object=loadshape.gso_36_dot_2120__dash_79_dot_7183_35_270 npts=5 interval=1 mult=[0,0.01592,0.03918,0.04746,0.20611]
new object=loadshape.gso_36_dot_2120__dash_79_dot_7183_15_180 npts=5 interval=1 mult=[0,0.05868,0.31971,0.53593,0.68601]
new object=loadshape.gso_36_dot_1751__dash_79_dot_7183_25_270 npts=5 interval=1 mult=[0,0.0162,0.03658,0.10621,0.29846]
new object=loadshape.gso_36_dot_2120__dash_79_dot_7183_45_225 npts=5 interval=1 mult=[0,0.01494,0.10895,0.35487,0.5921]
new object=loadshape.gso_36_dot_2489__dash_79_dot_7183_25_135 npts=5 interval=1 mult=[0,0.12206,0.50799,0.71296,0.81314]
new object=loadshape.gso_36_dot_1751__dash_79_dot_7183_25_180 npts=5 interval=1 mult=[0,0.08121,0.3938,0.63552,0.80093]
new object=loadshape.gso_36_dot_1751__dash_79_dot_7183_35_225 npts=5 interval=1 mult=[0,0.01546,0.13343,0.37437,0.59947]
new object=loadshape.gso_36_dot_1751__dash_79_dot_7183_15_90 npts=5 interval=1 mult=[0,0.08463,0.34332,0.49973,0.57908]
new object=loadshape.gso_36_dot_2489__dash_79_dot_7183_45_225 npts=5 interval=1 mult=[0,0.01494,0.10828,0.35417,0.59488]
new object=loadshape.gso_36_dot_1751__dash_79_dot_7183_45_90 npts=5 interval=1 mult=[0,0.18128,0.57308,0.67599,0.64929]
new object=loadshape.gso_36_dot_1751__dash_79_dot_7183_25_225 npts=5 interval=1 mult=[0,0.0162,0.15521,0.38342,0.58729]
new object=loadshape.gso_36_dot_2489__dash_79_dot_7183_25_270 npts=5 interval=1 mult=[0,0.01668,0.03661,0.10459,0.29743]
new object=loadshape.gso_36_dot_1751__dash_79_dot_7183_25_135 npts=5 interval=1 mult=[0,0.13232,0.50877,0.71485,0.81423]
new object=loadshape.gso_36_dot_2489__dash_79_dot_7183_35_90 npts=5 interval=1 mult=[0,0.14088,0.50935,0.63239,0.64194]
new object=loadshape.gso_36_dot_2489__dash_79_dot_7183_35_135 npts=5 interval=1 mult=[0,0.15536,0.61251,0.82235,0.90648]
new object=loadshape.gso_36_dot_2489__dash_79_dot_7183_25_90 npts=5 interval=1 mult=[0,0.11139,0.43199,0.573,0.61822]
new object=loadshape.gso_36_dot_2489__dash_79_dot_7183_15_135 npts=5 interval=1 mult=[0,0.08531,0.3891,0.58353,0.69724]
new object=loadshape.gso_36_dot_2489__dash_79_dot_7183_45_135 npts=5 interval=1 mult=[0,0.18422,0.69947,0.90835,0.97441]
new object=loadshape.gso_36_dot_2489__dash_79_dot_7183_15_90 npts=5 interval=1 mult=[0,0.07877,0.34255,0.49782,0.57787]
new object=loadshape.gso_36_dot_2489__dash_79_dot_7183_45_270 npts=5 interval=1 mult=[0,0.01494,0.04073,0.05144,0.11154]
new object=loadshape.gso_36_dot_2489__dash_79_dot_7183_15_270 npts=5 interval=1 mult=[0,0.0172,0.03653,0.21095,0.38141]
new object=loadshape.gso_36_dot_1751__dash_79_dot_7183_55_180 npts=5 interval=1 mult=[0,0.12787,0.5441,0.81625,0.98981]
new object=loadshape.gso_36_dot_2489__dash_79_dot_7183_35_225 npts=5 interval=1 mult=[0,0.01592,0.13296,0.37282,0.59861]
new object=loadshape.gso_36_dot_2489__dash_79_dot_7183_45_90 npts=5 interval=1 mult=[0,0.16636,0.5723,0.67418,0.64828]
new object=loadshape.res_kw_278_pu npts=5 interval=1 mult=[0.138393,0.155018,0.184962,0.226015,0.226445] qmult=[0.292411,0.352132,0.453146,0.569313,0.578916]
new object=loadshape.res_kw_1246_pu npts=5 interval=1 mult=[0.677802,0.721198,0.17193,0.166554,0.164524] qmult=[0.486632,0.544206,0.29127,0.283425,0.281417]
new object=loadshape.res_kw_324_pu npts=5 interval=1 mult=[0.368849,0.471103,0.47066,0.253678,0.164445] qmult=[0.463757,0.578925,0.57854,0.27737,0.278221]
new object=loadshape.res_kw_1205_pu npts=5 interval=1 mult=[0.514866,0.384102,0.421979,0.471329,0.543937] qmult=[0.643214,0.433095,0.532008,0.589475,0.673302]
new object=loadshape.res_kw_454_pu npts=5 interval=1 mult=[0.227655,0.0901943,0.171094,0.0955351,0.0824929] qmult=[0.246172,0.216486,0.395471,0.23195,0.197158]
new object=loadshape.res_kw_664_pu npts=5 interval=1 mult=[0.11364,0.105027,0.096195,0.089369,0.0868857] qmult=[0.223018,0.207621,0.195153,0.185641,0.181099]
new object=loadshape.res_kw_35_pu npts=5 interval=1 mult=[0.147877,0.157236,0.110509,0.105233,0.103217] qmult=[0.306985,0.31725,0.262589,0.253104,0.24806]
new object=loadshape.res_kw_843_pu npts=5 interval=1 mult=[0.120013,0.128858,0.115167,0.130912,0.255474] qmult=[0.30701,0.327042,0.302573,0.335078,0.590826]
new object=loadshape.res_kw_462_pu npts=5 interval=1 mult=[0.106311,0.106951,0.0768234,0.071978,0.070069] qmult=[0.317498,0.318774,0.247499,0.236185,0.230962]
new object=loadshape.res_kw_4_pu npts=5 interval=1 mult=[0.105439,0.313159,0.229455,0.126678,0.376436] qmult=[0.251502,0.641456,0.484594,0.293316,0.929899]
new object=loadshape.res_kw_517_pu npts=5 interval=1 mult=[0.355691,0.335039,0.218415,0.29672,0.304886] qmult=[0.425999,0.410258,0.270155,0.370651,0.377265]
new object=loadshape.res_kw_670_pu npts=5 interval=1 mult=[0.258328,0.264352,0.159884,0.142123,0.121609] qmult=[0.313208,0.319566,0.29977,0.278591,0.251251]
new object=loadshape.res_kw_917_pu npts=5 interval=1 mult=[0.529327,0.513826,0.432917,0.379133,0.441937] qmult=[0.378362,0.349247,0.350316,0.350316,0.43762]
new object=loadshape.res_kw_452_pu npts=5 interval=1 mult=[0.196963,0.409516,0.25643,0.2872,0.287462] qmult=[0.223603,0.529222,0.307118,0.354772,0.357496]
new object=loadshape.res_kw_624_pu npts=5 interval=1 mult=[0.498073,0.317988,0.228384,0.193386,0.193864] qmult=[0.205829,0.199951,0.216612,0.18934,0.188757]
new object=loadshape.res_kw_33_pu npts=5 interval=1 mult=[0.145362,0.17114,0.189704,0.178654,0.146125] qmult=[0.242065,0.269743,0.2904,0.276417,0.239954]
new object=loadshape.res_kw_319_pu npts=5 interval=1 mult=[0.0971084,0.0723435,0.0676446,0.0640872,0.0633535] qmult=[0.231837,0.195715,0.186338,0.179352,0.177253]
new object=loadshape.res_kw_93_pu npts=5 interval=1 mult=[0.22372,0.238965,0.23024,0.223264,0.244296] qmult=[0.360663,0.375222,0.370787,0.367403,0.401269]
new object=loadshape.res_kw_933_pu npts=5 interval=1 mult=[0.0918083,0.0960528,0.11485,0.111125,0.0976188] qmult=[0.260675,0.27099,0.318164,0.311268,0.280447]
new object=loadshape.res_kw_203_pu npts=5 interval=1 mult=[0.52673,0.454711,0.455919,0.396285,0.364851] qmult=[0.579983,0.633666,0.65499,0.604347,0.569297]
new object=loadshape.res_kw_732_pu npts=5 interval=1 mult=[0.183785,0.167629,0.160594,0.152488,0.149845] qmult=[0.316695,0.30105,0.290086,0.277014,0.272837]
new object=loadshape.res_kw_267_pu npts=5 interval=1 mult=[0.124497,0.20626,0.458778,0.196577,0.190944] qmult=[0.161623,0.196228,0.203698,0.185225,0.180496]
new object=loadshape.res_kw_263_pu npts=5 interval=1 mult=[0.15949,0.346416,0.35517,0.352895,0.341448] qmult=[0.27303,0.554008,0.569666,0.567731,0.54829]
new object=loadshape.res_kw_752_pu npts=5 interval=1 mult=[0.425355,0.302753,0.24574,0.196897,0.188666] qmult=[0.27355,0.226738,0.202161,0.181018,0.197519]
new object=loadshape.res_kw_549_pu npts=5 interval=1 mult=[0.194483,0.104129,0.1458,0.174392,0.169691] qmult=[0.237277,0.247342,0.348233,0.423585,0.419601]
new object=loadshape.res_kw_1267_pu npts=5 interval=1 mult=[0.262346,0.255801,0.15409,0.112589,0.515294] qmult=[0.0383156,0.0387911,0.0390288,0.0347954,0.0387911]
new object=loadshape.res_kw_985_pu npts=5 interval=1 mult=[0.214637,0.234012,0.0886053,0.0878555,0.0875733] qmult=[0.354727,0.346959,0.17208,0.17183,0.171802]
new object=loadshape.res_kw_1037_pu npts=5 interval=1 mult=[0.319978,0.123544,0.120475,0.114197,0.154271] qmult=[0.484581,0.170056,0.167972,0.16014,0.220076]
new object=loadshape.res_kw_250_pu npts=5 interval=1 mult=[0.107423,0.360469,0.20931,0.423617,0.422968] qmult=[0.201077,0.581123,0.375097,0.700525,0.702526]
new object=loadshape.res_kw_1157_pu npts=5 interval=1 mult=[0.181547,0.230773,0.180707,0.134018,0.130866] qmult=[0.395757,0.469563,0.389794,0.320742,0.313568]
new object=loadshape.res_kw_1070_pu npts=5 interval=1 mult=[0.825202,0.54115,0.45691,0.452617,0.462711] qmult=[2.02178,0.927528,1.6195,1.76865,1.77694]
new object=loadshape.res_kw_929_pu npts=5 interval=1 mult=[0.605788,0.593416,0.489759,0.472426,0.411216] qmult=[0.291419,0.305201,0.311955,0.587421,0.461247]
new object=loadshape.res_kw_134_pu npts=5 interval=1 mult=[0.155782,0.161139,0.156017,0.167924,0.148123] qmult=[0.439695,0.45253,0.444006,0.477683,0.427167]
new object=loadshape.res_kw_280_pu npts=5 interval=1 mult=[0.13066,0.138932,0.133605,0.129476,0.126088] qmult=[0.306833,0.318301,0.309378,0.303105,0.295369]
new object=loadshape.res_kw_825_pu npts=5 interval=1 mult=[0.153989,0.11278,0.108931,0.128576,0.28507] qmult=[0.316353,0.243441,0.238278,0.268082,0.55554]
new object=loadshape.res_kw_523_pu npts=5 interval=1 mult=[0.138323,0.157041,0.190015,0.21929,0.264911] qmult=[0.283737,0.327027,0.411494,0.487068,0.509161]
new object=loadshape.res_kw_1108_pu npts=5 interval=1 mult=[0.215331,0.256448,0.371129,0.241619,0.259384] qmult=[0.234616,0.299349,0.674912,0.439756,0.534167]
new object=loadshape.res_kw_595_pu npts=5 interval=1 mult=[0.405142,0.384599,0.86845,0.315096,0.329774] qmult=[0.46484,0.26403,0.887097,0.589424,0.603677]
new object=loadshape.res_kw_863_pu npts=5 interval=1 mult=[0.212365,0.13897,0.0897804,0.190094,0.0842545] qmult=[0.373256,0.268423,0.188386,0.358043,0.179822]
new object=loadshape.res_kw_1186_pu npts=5 interval=1 mult=[0.142238,0.180515,0.135996,0.11693,0.10917] qmult=[0.326413,0.318479,0.319239,0.294156,0.277049]
new object=loadshape.res_kw_597_pu npts=5 interval=1 mult=[0.279846,0.178782,0.056622,0.0564824,0.049014] qmult=[0.259325,0.214595,0.209809,0.210435,0.19082]
new object=loadshape.res_kw_421_pu npts=5 interval=1 mult=[0.11865,0.129998,0.164022,0.195709,0.166667] qmult=[0.400935,0.444357,0.574153,0.669571,0.604402]
new object=loadshape.res_kw_409_pu npts=5 interval=1 mult=[0.265757,0.295709,0.403115,0.398109,0.403049] qmult=[0.407153,0.4576,0.622203,0.639609,0.650074]
new object=loadshape.res_kw_121_pu npts=5 interval=1 mult=[0.0970783,0.103932,0.123155,0.120102,0.0944034] qmult=[0.231006,0.242356,0.267295,0.261245,0.225398]
new object=loadshape.res_kw_621_pu npts=5 interval=1 mult=[0.0804474,0.11617,0.160254,0.363919,0.410687] qmult=[0.144037,0.18061,0.228005,0.544454,0.617002]
new object=loadshape.res_kw_1193_pu npts=5 interval=1 mult=[0.0753679,0.0817949,0.123143,0.0766718,0.0768829] qmult=[0.169985,0.180274,0.206239,0.172372,0.173362]
new object=loadshape.res_kw_1042_pu npts=5 interval=1 mult=[0.195474,0.247475,0.193288,0.20736,0.272661] qmult=[0.239912,0.260657,0.231558,0.257695,0.261468]
new object=loadshape.res_kw_1094_pu npts=5 interval=1 mult=[0.60105,0.597617,0.483268,0.378062,0.340377] qmult=[0.926068,0.946326,0.956455,0.956455,0.946326]
new object=loadshape.res_kw_366_pu npts=5 interval=1 mult=[0.26629,0.457584,0.463134,0.452147,0.534895] qmult=[0.260972,0.372503,0.375904,0.368917,0.368372]
new object=loadshape.res_kw_282_pu npts=5 interval=1 mult=[0.559614,0.503085,0.411757,0.442767,0.543375] qmult=[0.660362,0.715221,0.651925,0.673287,0.734698]
new object=loadshape.res_kw_852_pu npts=5 interval=1 mult=[0.365008,0.359547,0.404685,0.252842,0.240107] qmult=[0.152019,0.166131,0.531773,0.228254,0.191807]
new object=loadshape.res_kw_532_pu npts=5 interval=1 mult=[0.419758,0.374539,0.373715,0.358291,0.347202] qmult=[0.899366,0.817696,0.818384,0.791674,0.771175]
new object=loadshape.res_kw_314_pu npts=5 interval=1 mult=[0.121068,0.125802,0.114248,0.107537,0.106155] qmult=[0.239478,0.247628,0.230081,0.221227,0.218161]
new object=loadshape.res_kw_611_pu npts=5 interval=1 mult=[0.228802,0.212314,0.0933641,0.264298,0.249423] qmult=[0.549622,0.500495,0.228622,0.614179,0.59001]
new object=loadshape.res_kw_450_pu npts=5 interval=1 mult=[0.213913,0.272824,0.296082,0.178773,0.190916] qmult=[0.479911,0.556481,0.633065,0.561541,0.521065]
new object=loadshape.res_kw_340_pu npts=5 interval=1 mult=[0.492473,0.653687,0.431389,0.367817,0.334907] qmult=[0.507154,0.509486,0.441677,0.436718,0.433467]
new object=loadshape.res_kw_317_pu npts=5 interval=1 mult=[0.092279,0.115995,0.116547,0.109193,0.128374] qmult=[0.211038,0.24656,0.250327,0.236412,0.262566]
new object=loadshape.res_kw_689_pu npts=5 interval=1 mult=[0.126992,0.151465,0.195158,0.315376,0.305422] qmult=[0.296438,0.335834,0.403807,0.527271,0.601165]
new object=loadshape.res_kw_1258_pu npts=5 interval=1 mult=[0.131309,0.129968,0.120884,0.371649,0.369263] qmult=[0.199781,0.197816,0.189326,0.480779,0.478745]
new object=loadshape.res_kw_453_pu npts=5 interval=1 mult=[0.233086,0.100501,0.0867899,0.0700621,0.0806529] qmult=[0.234294,0.27684,0.250221,0.216253,0.251093]
new object=loadshape.res_kw_46_pu npts=5 interval=1 mult=[0.128675,0.140899,0.146214,0.17353,0.175981] qmult=[0.299362,0.329782,0.369781,0.430443,0.438317]
new object=loadshape.res_kw_898_pu npts=5 interval=1 mult=[0.469577,0.416726,0.33577,0.306721,0.281718] qmult=[0.157767,0.268372,0.229511,0.288157,0.295444]
new object=loadshape.res_kw_512_pu npts=5 interval=1 mult=[0.124933,0.135667,0.111183,0.107865,0.105346] qmult=[0.305424,0.326242,0.285221,0.280021,0.274374]
new object=loadshape.res_kw_1013_pu npts=5 interval=1 mult=[0.201676,0.145057,0.171331,0.181944,0.545426] qmult=[0.274713,0.266727,0.372891,0.39327,0.515739]
new object=loadshape.res_kw_779_pu npts=5 interval=1 mult=[0.428862,0.455497,0.46332,0.343039,0.296338] qmult=[0.12985,0.28282,0.292658,0.440975,0.374377]
new object=loadshape.res_kw_850_pu npts=5 interval=1 mult=[0.53191,0.689913,0.4437,0.487671,0.379796] qmult=[0.301219,0.302027,0.272783,0.48484,0.247304]
new object=loadshape.res_kw_1036_pu npts=5 interval=1 mult=[0.916398,0.551281,0.356179,0.282479,0.251323] qmult=[0.408412,0.391321,0.39402,0.330621,0.302115]
new object=loadshape.res_kw_224_pu npts=5 interval=1 mult=[0.463689,0.436164,0.322638,0.223531,0.187866] qmult=[0.133497,0.132196,0.119521,0.107565,0.10223]
new object=loadshape.res_kw_616_pu npts=5 interval=1 mult=[0.134815,0.167707,0.137104,0.168815,0.130754] qmult=[0.301141,0.353771,0.305853,0.33183,0.300731]
new object=loadshape.res_kw_1115_pu npts=5 interval=1 mult=[0.0774525,0.121239,0.0899855,0.0803785,0.0762486] qmult=[0.165574,0.23026,0.185142,0.167489,0.158723]
new object=loadshape.res_kw_1223_pu npts=5 interval=1 mult=[0.20067,0.202834,0.180418,0.162702,0.159204] qmult=[0.286392,0.290909,0.260684,0.236445,0.23159]
new object=loadshape.res_kw_908_pu npts=5 interval=1 mult=[0.0772907,0.0775817,0.0734581,0.0700901,0.158526] qmult=[0.151031,0.151608,0.151887,0.151871,0.253393]
new object=loadshape.res_kw_561_pu npts=5 interval=1 mult=[0.508998,0.303658,0.234796,0.215701,0.256093] qmult=[0.192998,0.205525,0.206872,0.195678,0.278191]
new object=loadshape.res_kw_39_pu npts=5 interval=1 mult=[0.191346,0.125339,0.119486,0.290431,0.110256] qmult=[0.344444,0.283105,0.278818,0.66681,0.265779]
new object=loadshape.res_kw_807_pu npts=5 interval=1 mult=[0.224893,0.226924,0.226403,0.261089,0.23317] qmult=[0.480778,0.484134,0.485979,0.50094,0.500456]
new object=loadshape.res_kw_1228_pu npts=5 interval=1 mult=[0.177675,0.19405,0.164131,0.17413,0.140371] qmult=[0.361643,0.387354,0.352104,0.36433,0.319684]
new object=loadshape.res_kw_137_pu npts=5 interval=1 mult=[0.654027,0.822389,0.590937,0.532899,0.408058] qmult=[1.87463,2.36248,2.3418,2.3418,1.17297]
new object=loadshape.res_kw_928_pu npts=5 interval=1 mult=[0.144907,0.157117,0.206891,0.253575,0.245097] qmult=[0.341316,0.306811,0.454145,0.571647,0.580126]
new object=loadshape.res_kw_141_pu npts=5 interval=1 mult=[0.277942,0.285248,0.258842,0.269164,0.28541] qmult=[0.375658,0.369633,0.338009,0.290407,0.37125]
new object=loadshape.res_kw_206_pu npts=5 interval=1 mult=[0.251458,0.160272,0.280908,0.136953,0.130547] qmult=[0.338599,0.343516,0.415191,0.308518,0.297052]
new object=loadshape.res_kw_162_pu npts=5 interval=1 mult=[0.225441,0.21285,0.324016,0.308606,0.314889] qmult=[0.40549,0.440906,0.622064,0.69247,0.707941]
new object=loadshape.res_kw_1159_pu npts=5 interval=1 mult=[0.0727395,0.074591,0.131078,0.0673618,0.064975] qmult=[0.204644,0.209785,0.171903,0.193041,0.18728]
new object=loadshape.res_kw_128_pu npts=5 interval=1 mult=[0.151354,0.155382,0.167358,0.0752879,0.165307] qmult=[0.420926,0.431191,0.468334,0.226531,0.467958]
new object=loadshape.res_kw_182_pu npts=5 interval=1 mult=[0.0719722,0.209046,0.219027,0.235162,0.234728] qmult=[0.172364,0.405078,0.423041,0.454731,0.454176]
new object=loadshape.res_kw_627_pu npts=5 interval=1 mult=[0.126892,0.0732194,0.21341,0.0838116,0.0847802] qmult=[0.234379,0.148161,0.412431,0.155396,0.157363]
new object=loadshape.res_kw_822_pu npts=5 interval=1 mult=[0.140953,0.137436,0.132794,0.126683,0.642534] qmult=[0.273177,0.268188,0.261128,0.251128,0.61665]
new object=loadshape.res_kw_30_pu npts=5 interval=1 mult=[0.0653272,0.045494,0.0507478,0.0425206,0.0384509] qmult=[0.149314,0.119291,0.132715,0.114988,0.105935]
new object=loadshape.res_kw_75_pu npts=5 interval=1 mult=[0.360088,0.33558,0.288354,0.200303,0.283724] qmult=[0.1936,0.162224,0.213529,0.163339,0.512055]
new object=loadshape.res_kw_411_pu npts=5 interval=1 mult=[0.109253,0.134442,0.128509,0.125633,0.140964] qmult=[0.344905,0.449189,0.378814,0.378383,0.379703]
new object=loadshape.res_kw_842_pu npts=5 interval=1 mult=[0.268314,0.239853,0.221978,0.106951,0.106257] qmult=[0.507445,0.478945,0.447975,0.211187,0.210125]
new object=loadshape.res_kw_26_pu npts=5 interval=1 mult=[0.459765,0.457469,0.537052,0.425886,0.459871] qmult=[0.982466,1.00617,1.84254,1.72833,1.87963]
new object=loadshape.res_kw_470_pu npts=5 interval=1 mult=[0.0891404,0.116143,0.115842,0.11849,0.114102] qmult=[0.317065,0.376572,0.38177,0.392826,0.379784]
new object=loadshape.res_kw_195_pu npts=5 interval=1 mult=[0.069411,0.250163,0.262734,0.972094,0.0911154] qmult=[0.221103,0.274653,0.340631,0.976798,0.279416]
new object=loadshape.res_kw_24_pu npts=5 interval=1 mult=[0.19546,0.244763,0.245164,0.224436,0.168568] qmult=[0.303281,0.360988,0.365394,0.339828,0.273475]
new object=loadshape.res_kw_710_pu npts=5 interval=1 mult=[0.204696,0.185876,0.0736303,0.141591,0.126056] qmult=[0.372847,0.349975,0.159606,0.250648,0.225201]
new object=loadshape.res_kw_1160_pu npts=5 interval=1 mult=[0.142638,0.118019,0.217533,0.0816678,0.0814389] qmult=[0.341298,0.285169,0.511951,0.209477,0.209131]
new object=loadshape.res_kw_316_pu npts=5 interval=1 mult=[0.16631,0.170928,0.377211,0.207909,0.175635] qmult=[0.433402,0.438402,0.471014,0.466787,0.423818]
new object=loadshape.res_kw_704_pu npts=5 interval=1 mult=[0.42398,0.69457,0.537817,0.447971,0.387351] qmult=[0.581215,0.613758,0.589515,0.589515,0.566231]
new object=loadshape.res_kw_1239_pu npts=5 interval=1 mult=[0.0626189,0.0487361,0.0611647,0.0727223,0.0745398] qmult=[0.186648,0.157659,0.202474,0.243687,0.250099]
new object=loadshape.res_kw_197_pu npts=5 interval=1 mult=[0.262517,0.267329,0.261418,0.27466,0.27563] qmult=[0.542043,0.551586,0.542124,0.568742,0.571774]
new object=loadshape.res_kw_754_pu npts=5 interval=1 mult=[0.0881887,0.228589,0.25966,0.198414,0.156049] qmult=[0.100408,0.0918746,0.101008,0.101008,0.100808]
new object=loadshape.res_kw_861_pu npts=5 interval=1 mult=[0.083015,0.149482,0.0340089,0.0311559,0.0313073] qmult=[0.326451,0.429788,0.134185,0.126046,0.126104]
new object=loadshape.res_kw_169_pu npts=5 interval=1 mult=[0.133643,0.0518261,0.131777,0.12989,0.0470746] qmult=[0.295716,0.120286,0.296881,0.296832,0.120153]
new object=loadshape.res_kw_708_pu npts=5 interval=1 mult=[0.0759137,0.0795311,0.101801,0.23197,0.100244] qmult=[0.251434,0.260118,0.329718,0.329656,0.329198]
new object=loadshape.res_kw_158_pu npts=5 interval=1 mult=[0.24512,0.247504,0.238392,0.231544,0.229409] qmult=[0.369916,0.366079,0.355474,0.347747,0.345111]
new object=loadshape.res_kw_334_pu npts=5 interval=1 mult=[0.0891572,0.0874134,0.0985268,0.0978816,0.112718] qmult=[0.221481,0.218554,0.248081,0.24783,0.283766]
new object=loadshape.res_kw_371_pu npts=5 interval=1 mult=[0.734126,0.666021,0.517868,0.40584,0.450009] qmult=[0.575078,0.336025,0.33786,0.33786,0.764183]
new object=loadshape.res_kw_968_pu npts=5 interval=1 mult=[0.134567,0.110124,0.127344,0.124854,0.107815] qmult=[0.331626,0.286394,0.3229,0.322862,0.295003]
new object=loadshape.res_kw_205_pu npts=5 interval=1 mult=[0.122734,0.197592,0.221964,0.132667,0.100795] qmult=[0.366379,0.500799,0.456605,0.308926,0.319438]
new object=loadshape.res_kw_931_pu npts=5 interval=1 mult=[0.482392,0.194539,0.165161,0.192055,0.160556] qmult=[0.407641,0.437298,0.402337,0.444977,0.399222]
new object=loadshape.res_kw_502_pu npts=5 interval=1 mult=[0.0439058,0.062886,0.0912949,0.0852308,0.0451691] qmult=[0.171907,0.232497,0.207751,0.261704,0.181343]
new object=loadshape.res_kw_695_pu npts=5 interval=1 mult=[0.157193,0.761055,0.153038,0.0861709,0.103727] qmult=[0.69409,0.87635,0.353412,0.273453,0.300249]
new object=loadshape.res_kw_504_pu npts=5 interval=1 mult=[0.057925,0.0593103,0.0557436,0.117278,0.0535747] qmult=[0.125993,0.128143,0.12406,0.128926,0.121875]
new object=loadshape.res_kw_396_pu npts=5 interval=1 mult=[0.0831184,0.111483,0.109036,0.0994363,0.127716] qmult=[0.213581,0.229608,0.228407,0.206023,0.220177]
new object=loadshape.res_kw_626_pu npts=5 interval=1 mult=[0.268704,0.459833,0.454451,0.49833,0.478114] qmult=[0.477965,0.580054,0.709909,0.767126,0.749443]
new object=loadshape.res_kw_707_pu npts=5 interval=1 mult=[0.0723651,0.167849,0.168562,0.144598,0.162405] qmult=[0.16652,0.347478,0.35055,0.31538,0.338498]
new object=loadshape.res_kw_1215_pu npts=5 interval=1 mult=[0.157525,0.134397,0.128639,0.124019,0.122846] qmult=[0.352105,0.368496,0.356155,0.345944,0.343101]
new object=loadshape.res_kw_1075_pu npts=5 interval=1 mult=[0.17972,0.0679327,0.381344,0.256083,0.0751887] qmult=[0.16819,0.181266,0.577914,0.325648,0.204316]
new object=loadshape.res_kw_184_pu npts=5 interval=1 mult=[0.771461,0.87285,0.627697,0.603841,0.57661] qmult=[0.780039,0.968308,0.256459,0.256459,0.255621]
new object=loadshape.res_kw_1276_pu npts=5 interval=1 mult=[0.248261,0.365551,0.277041,0.266554,0.293115] qmult=[0.376889,0.408584,0.378088,0.367545,0.383739]
new object=loadshape.res_kw_887_pu npts=5 interval=1 mult=[0.14303,0.143722,0.131795,0.0860538,0.159939] qmult=[0.388863,0.389477,0.36539,0.247861,0.339061]
new object=loadshape.res_kw_1105_pu npts=5 interval=1 mult=[0.208522,0.273758,0.276467,0.265194,0.374692] qmult=[0.338418,0.378063,0.397798,0.381858,0.602237]
new object=loadshape.res_kw_225_pu npts=5 interval=1 mult=[0.542117,0.560732,0.662819,0.692375,0.643088] qmult=[0.61446,0.652025,0.769471,0.820992,0.790591]
new object=loadshape.res_kw_438_pu npts=5 interval=1 mult=[0.118536,0.115144,0.088283,0.0585894,0.114851] qmult=[0.128948,0.130247,0.117091,0.101722,0.135865]
new object=loadshape.res_kw_1054_pu npts=5 interval=1 mult=[0.122961,0.0984331,0.096701,0.0940542,0.300816] qmult=[0.247425,0.249777,0.251639,0.250397,0.249934]
new object=loadshape.res_kw_1041_pu npts=5 interval=1 mult=[0.240875,0.279582,0.351963,0.422879,0.433168] qmult=[0.311686,0.37237,0.490369,0.60365,0.620246]
new object=loadshape.res_kw_1283_pu npts=5 interval=1 mult=[0.22971,0.115092,0.124156,0.260316,0.248194] qmult=[0.255345,0.271764,0.289787,0.316316,0.53751]
new object=loadshape.res_kw_199_pu npts=5 interval=1 mult=[0.0692526,0.0967189,0.0609849,0.078961,0.0556804] qmult=[0.168746,0.22754,0.151865,0.192556,0.141449]
new object=loadshape.res_kw_229_pu npts=5 interval=1 mult=[0.174535,0.207396,0.191358,0.115352,0.112975] qmult=[0.335767,0.391021,0.353227,0.274886,0.268694]
new object=loadshape.res_kw_1249_pu npts=5 interval=1 mult=[0.12301,0.123481,0.121495,0.118292,0.116109] qmult=[0.340109,0.336454,0.333895,0.327588,0.322688]
new object=loadshape.res_kw_245_pu npts=5 interval=1 mult=[0.0904541,0.096371,0.091632,0.0912239,0.0789899] qmult=[0.242448,0.254108,0.245909,0.247105,0.229001]
new object=loadshape.res_kw_645_pu npts=5 interval=1 mult=[0.0975943,0.0782894,0.089418,0.0873752,0.0857741] qmult=[0.227495,0.202212,0.216775,0.212932,0.209633]
new object=loadshape.res_kw_97_pu npts=5 interval=1 mult=[0.110653,0.026845,0.0264736,0.0260125,0.0258808] qmult=[0.256135,0.0758187,0.0763973,0.0763973,0.0758187]
new object=loadshape.res_kw_1067_pu npts=5 interval=1 mult=[0.0669769,0.216745,0.0752872,0.0637933,0.0657041] qmult=[0.132419,0.153296,0.144956,0.133679,0.138832]
new object=loadshape.res_kw_514_pu npts=5 interval=1 mult=[0.0796985,0.0909212,0.0866884,0.0862983,0.0787352] qmult=[0.254017,0.279271,0.26834,0.269596,0.246441]
new object=loadshape.res_kw_363_pu npts=5 interval=1 mult=[0.516811,0.512751,0.453578,0.409923,0.407425] qmult=[0.246967,0.248284,0.248942,0.248942,0.410548]
new object=loadshape.res_kw_259_pu npts=5 interval=1 mult=[0.0940557,0.0974377,0.109194,0.096058,0.131837] qmult=[0.213241,0.245299,0.267602,0.245688,0.245349]
new object=loadshape.res_kw_1112_pu npts=5 interval=1 mult=[0.074546,0.0764678,0.0735014,0.118737,0.117538] qmult=[0.230113,0.233727,0.235534,0.294552,0.292745]
new object=loadshape.res_kw_1248_pu npts=5 interval=1 mult=[0.100044,0.106721,0.10304,0.126077,0.124891] qmult=[0.227535,0.239274,0.234709,0.271468,0.270365]
new object=loadshape.res_kw_1137_pu npts=5 interval=1 mult=[0.0655399,0.136763,0.0618526,0.0671022,0.0534639] qmult=[0.243529,0.339624,0.236361,0.263137,0.212284]
new object=loadshape.res_kw_469_pu npts=5 interval=1 mult=[0.0692305,0.0704295,0.0754776,0.0647608,0.0706605] qmult=[0.262075,0.265586,0.291678,0.252823,0.276588]
new object=loadshape.res_kw_740_pu npts=5 interval=1 mult=[0.287069,0.462125,0.227531,0.187732,0.171916] qmult=[0.226816,0.387839,0.221402,0.214285,0.207978]
...


!!!vsource.dss
edit object=vsource.source bus1=rdt1527_dash_rhs0_1247x pu=1.03 basekv=12.47 r1=0.00001 x1=0.00001 r0=0.00001 x0=0.00001


!!!transformer.dss
new object=transformer.tr_op_r_col_rdt793_dash_rdt793lv_cp_ phases=1 windings=3 %loadloss=1.248151 %noloadloss=0.68 normhkva=11 conns=[wye,wye,wye] buses=[rdt793.3,rdt793lv.1.0,rdt793lv.0.2] kvs=[7.2,0.12,0.12] kvas=[10,10,10] emerghkva=15 %rs=[0.41605,0.832101,0.832101] xhl=1.08 xlt=1.08 xht=0.72
new object=transformer.tr_op_r_col_rdt794_dash_rdt794lv_cp_ phases=1 windings=3 %loadloss=0.798816 %noloadloss=0.37 normhkva=55 conns=[wye,wye,wye] buses=[rdt794.2,rdt794lv.1.0,rdt794lv.0.2] kvs=[7.2,0.12,0.12] kvas=[50,50,50] emerghkva=75 %rs=[0.266272,0.532544,0.532544] xhl=2.4 xlt=2.4 xht=1.6
new object=transformer.tr_op_r_col_rdt795_dash_rdt795lv_cp_ phases=1 windings=3 %loadloss=1.248151 %noloadloss=0.68 normhkva=11 conns=[wye,wye,wye] buses=[rdt795.2,rdt795lv.1.0,rdt795lv.0.2] kvs=[7.2,0.12,0.12] kvas=[10,10,10] emerghkva=15 %rs=[0.41605,0.832101,0.832101] xhl=1.08 xlt=1.08 xht=0.72
new object=transformer.tr_op_r_col_rdt797_dash_rdt797lv_cp_ phases=1 windings=3 %loadloss=1.248151 %noloadloss=0.68 normhkva=11 conns=[wye,wye,wye] buses=[rdt797.2,rdt797lv.1.0,rdt797lv.0.2] kvs=[7.2,0.12,0.12] kvas=[10,10,10] emerghkva=15 %rs=[0.41605,0.832101,0.832101] xhl=1.08 xlt=1.08 xht=0.72
new object=transformer.tr_op_r_col_rdt798_dash_rdt798lv_cp_ phases=1 windings=3 %loadloss=0.798816 %noloadloss=0.37 normhkva=55 conns=[wye,wye,wye] buses=[rdt798.2,rdt798lv.1.0,rdt798lv.0.2] kvs=[7.2,0.12,0.12] kvas=[50,50,50] emerghkva=75 %rs=[0.266272,0.532544,0.532544] xhl=2.4 xlt=2.4 xht=1.6
new object=transformer.tr_op_r_col_rdt800_dash_rdt800lv_cp_ phases=1 windings=3 %loadloss=0.798816 %noloadloss=0.37 normhkva=55 conns=[wye,wye,wye] buses=[rdt800.1,rdt800lv.1.0,rdt800lv.0.2] kvs=[7.2,0.12,0.12] kvas=[50,50,50] emerghkva=75 %rs=[0.266272,0.532544,0.532544] xhl=2.4 xlt=2.4 xht=1.6
new object=transformer.tr_op_r_col_rdt801_dash_rdt801lv_cp_ phases=3 windings=2 %loadloss=1.61095 %noloadloss=0.62 normhkva=110 conns=[wye,wye] kvs=[12.47,0.48] kvas=[100,100] emerghkva=150 %rs=[0.805475,0.805475] buses=[rdt801,rdt801lv] xhl=3.29
new object=transformer.tr_op_r_col_rdt1109_dash_rdt1109lv_cp_ phases=3 windings=2 %loadloss=2.1568 %noloadloss=0.516667 normhkva=165 conns=[wye,wye] kvs=[12.47,0.48] kvas=[150,150] emerghkva=225 %rs=[1.0784,1.0784] buses=[rdt1109,rdt1109lv] xhl=3.39
new object=transformer.tr_op_r_col_rdt1110_dash_rdt1110lv_cp_ phases=1 windings=3 %loadloss=0.798816 %noloadloss=0.472 normhkva=27.5 conns=[wye,wye,wye] buses=[rdt1110.2,rdt1110lv.1.0,rdt1110lv.0.2] kvs=[7.2,0.12,0.12] kvas=[25,25,25] emerghkva=37.5 %rs=[0.266272,0.532544,0.532544] xhl=2.4 xlt=2.4 xht=1.6
new object=transformer.tr_op_r_col_rdt1111_dash_rdt1111lv_cp_ phases=1 windings=3 %loadloss=1.248151 %noloadloss=0.68 normhkva=11 conns=[wye,wye,wye] buses=[rdt1111.3,rdt1111lv.1.0,rdt1111lv.0.2] kvs=[7.2,0.12,0.12] kvas=[10,10,10] emerghkva=15 %rs=[0.41605,0.832101,0.832101] xhl=1.08 xlt=1.08 xht=0.72
new object=transformer.tr_op_r_col_rdt1112_dash_rdt1112lv_cp_ phases=3 windings=2 %loadloss=1.74408 %noloadloss=0.6 normhkva=82.5 conns=[wye,wye] kvs=[12.47,0.48] kvas=[75,75] emerghkva=112.5 %rs=[0.87204,0.87204] buses=[rdt1112,rdt1112lv] xhl=3.24
new object=transformer.tr_op_r_col_rdt1113_dash_rdt1113lv_cp_ phases=3 windings=2 %loadloss=1.74408 %noloadloss=0.6 normhkva=82.5 conns=[wye,wye] kvs=[12.47,0.48] kvas=[75,75] emerghkva=112.5 %rs=[0.87204,0.87204] buses=[rdt1113,rdt1113lv] xhl=3.24
new object=transformer.tr_op_r_col_rdt1114_dash_rdt1114lv_cp_ phases=1 windings=3 %loadloss=1.248151 %noloadloss=0.68 normhkva=11 conns=[wye,wye,wye] buses=[rdt1114.2,rdt1114lv.1.0,rdt1114lv.0.2] kvs=[7.2,0.12,0.12] kvas=[10,10,10] emerghkva=15 %rs=[0.41605,0.832101,0.832101] xhl=1.08 xlt=1.08 xht=0.72
new object=transformer.tr_op_r_col_rdt1115_dash_rdt1115lv_cp_ phases=1 windings=3 %loadloss=1.248151 %noloadloss=0.68 normhkva=11 conns=[wye,wye,wye] buses=[rdt1115.3,rdt1115lv.1.0,rdt1115lv.0.2] kvs=[7.2,0.12,0.12] kvas=[10,10,10] emerghkva=15 %rs=[0.41605,0.832101,0.832101] xhl=1.08 xlt=1.08 xht=0.72
new object=transformer.tr_op_r_col_rdt1116_dash_rdt1116lv_cp_ phases=1 windings=3 %loadloss=0.798816 %noloadloss=0.472 normhkva=27.5 conns=[wye,wye,wye] buses=[rdt1116.2,rdt1116lv.1.0,rdt1116lv.0.2] kvs=[7.2,0.12,0.12] kvas=[25,25,25] emerghkva=37.5 %rs=[0.266272,0.532544,0.532544] xhl=2.4 xlt=2.4 xht=1.6
new object=transformer.tr_op_r_col_rdt1117_dash_rdt1117lv_cp_ phases=1 windings=3 %loadloss=0.798816 %noloadloss=0.472 normhkva=27.5 conns=[wye,wye,wye] buses=[rdt1117.1,rdt1117lv.1.0,rdt1117lv.0.2] kvs=[7.2,0.12,0.12] kvas=[25,25,25] emerghkva=37.5 %rs=[0.266272,0.532544,0.532544] xhl=2.4 xlt=2.4 xht=1.6
new object=transformer.tr_op_r_col_rdt1118_dash_rdt1118lv_cp_ phases=1 windings=3 %loadloss=1.248151 %noloadloss=0.68 normhkva=11 conns=[wye,wye,wye] buses=[rdt1118.1,rdt1118lv.1.0,rdt1118lv.0.2] kvs=[7.2,0.12,0.12] kvas=[10,10,10] emerghkva=15 %rs=[0.41605,0.832101,0.832101] xhl=1.08 xlt=1.08 xht=0.72
new object=transformer.tr_op_r_col_rdt1119_dash_rdt1119lv_cp_ phases=1 windings=3 %loadloss=0.798816 %noloadloss=0.472 normhkva=27.5 conns=[wye,wye,wye] buses=[rdt1119.1,rdt1119lv.1.0,rdt1119lv.0.2] kvs=[7.2,0.12,0.12] kvas=[25,25,25] emerghkva=37.5 %rs=[0.266272,0.532544,0.532544] xhl=2.4 xlt=2.4 xht=1.6
new object=transformer.tr_op_r_col_rdt1120_dash_rdt1120lv_cp_ phases=1 windings=3 %loadloss=0.798816 %noloadloss=0.37 normhkva=55 conns=[wye,wye,wye] buses=[rdt1120.1,rdt1120lv.1.0,rdt1120lv.0.2] kvs=[7.2,0.12,0.12] kvas=[50,50,50] emerghkva=75 %rs=[0.266272,0.532544,0.532544] xhl=2.4 xlt=2.4 xht=1.6
new object=transformer.tr_op_r_col_rdt1121_dash_rdt1121lv_cp_ phases=1 windings=3 %loadloss=0.798816 %noloadloss=0.472 normhkva=27.5 conns=[wye,wye,wye] buses=[rdt1121.1,rdt1121lv.1.0,rdt1121lv.0.2] kvs=[7.2,0.12,0.12] kvas=[25,25,25] emerghkva=37.5 %rs=[0.266272,0.532544,0.532544] xhl=2.4 xlt=2.4 xht=1.6
new object=transformer.tr_op_r_col_rdt1124_dash_rdt1124lv_cp_ phases=1 windings=3 %loadloss=0.798816 %noloadloss=0.472 normhkva=27.5 conns=[wye,wye,wye] buses=[rdt1124.3,rdt1124lv.1.0,rdt1124lv.0.2] kvs=[7.2,0.12,0.12] kvas=[25,25,25] emerghkva=37.5 %rs=[0.266272,0.532544,0.532544] xhl=2.4 xlt=2.4 xht=1.6
new object=transformer.tr_op_r_col_rdt1125_dash_rdt1125lv_cp_ phases=1 windings=3 %loadloss=0.798816 %noloadloss=0.37 normhkva=55 conns=[wye,wye,wye] buses=[rdt1125.1,rdt1125lv.1.0,rdt1125lv.0.2] kvs=[7.2,0.12,0.12] kvas=[50,50,50] emerghkva=75 %rs=[0.266272,0.532544,0.532544] xhl=2.4 xlt=2.4 xht=1.6
new object=transformer.tr_op_r_col_rdt1126_dash_rdt1126lv_cp_ phases=1 windings=3 %loadloss=1.248151 %noloadloss=0.68 normhkva=11 conns=[wye,wye,wye] buses=[rdt1126.1,rdt1126lv.1.0,rdt1126lv.0.2] kvs=[7.2,0.12,0.12] kvas=[10,10,10] emerghkva=15 %rs=[0.41605,0.832101,0.832101] xhl=1.08 xlt=1.08 xht=0.72
new object=transformer.tr_op_r_col_rdt1127_dash_rdt1127lv_cp_ phases=1 windings=3 %loadloss=1.248151 %noloadloss=0.68 normhkva=11 conns=[wye,wye,wye] buses=[rdt1127.1,rdt1127lv.1.0,rdt1127lv.0.2] kvs=[7.2,0.12,0.12] kvas=[10,10,10] emerghkva=15 %rs=[0.41605,0.832101,0.832101] xhl=1.08 xlt=1.08 xht=0.72
new object=transformer.tr_op_r_col_rdt1128_dash_rdt1128lv_cp_ phases=1 windings=3 %loadloss=1.248151 %noloadloss=0.68 normhkva=11 conns=[wye,wye,wye] buses=[rdt1128.1,rdt1128lv.1.0,rdt1128lv.0.2] kvs=[7.2,0.12,0.12] kvas=[10,10,10] emerghkva=15 %rs=[0.41605,0.832101,0.832101] xhl=1.08 xlt=1.08 xht=0.72
new object=transformer.tr_op_r_col_rdt1129_dash_rdt1129lv_cp_ phases=1 windings=3 %loadloss=1.248151 %noloadloss=0.68 normhkva=11 conns=[wye,wye,wye] buses=[rdt1129.1,rdt1129lv.1.0,rdt1129lv.0.2] kvs=[7.2,0.12,0.12] kvas=[10,10,10] emerghkva=15 %rs=[0.41605,0.832101,0.832101] xhl=1.08 xlt=1.08 xht=0.72
new object=transformer.tr_op_r_col_rdt1130_dash_rdt1130lv_cp_ phases=1 windings=3 %loadloss=1.248151 %noloadloss=0.68 normhkva=11 conns=[wye,wye,wye] buses=[rdt1130.1,rdt1130lv.1.0,rdt1130lv.0.2] kvs=[7.2,0.12,0.12] kvas=[10,10,10] emerghkva=15 %rs=[0.41605,0.832101,0.832101] xhl=1.08 xlt=1.08 xht=0.72
new object=transformer.tr_op_r_col_rdt1131_dash_rdt1131lv_cp_ phases=1 windings=3 %loadloss=0.798816 %noloadloss=0.472 normhkva=27.5 conns=[wye,wye,wye] buses=[rdt1131.3,rdt1131lv.1.0,rdt1131lv.0.2] kvs=[7.2,0.12,0.12] kvas=[25,25,25] emerghkva=37.5 %rs=[0.266272,0.532544,0.532544] xhl=2.4 xlt=2.4 xht=1.6
new object=transformer.tr_op_r_col_rdt1132_dash_rdt1132lv_cp_ phases=1 windings=3 %loadloss=0.798816 %noloadloss=0.472 normhkva=27.5 conns=[wye,wye,wye] buses=[rdt1132.3,rdt1132lv.1.0,rdt1132lv.0.2] kvs=[7.2,0.12,0.12] kvas=[25,25,25] emerghkva=37.5 %rs=[0.266272,0.532544,0.532544] xhl=2.4 xlt=2.4 xht=1.6
new object=transformer.tr_op_r_col_rdt1133_dash_rdt1133lv_cp_ phases=1 windings=3 %loadloss=1.248151 %noloadloss=0.68 normhkva=11 conns=[wye,wye,wye] buses=[rdt1133.3,rdt1133lv.1.0,rdt1133lv.0.2] kvs=[7.2,0.12,0.12] kvas=[10,10,10] emerghkva=15 %rs=[0.41605,0.832101,0.832101] xhl=1.08 xlt=1.08 xht=0.72
new object=transformer.tr_op_r_col_rdt1134_dash_rdt1134lv_cp_ phases=1 windings=3 %loadloss=1.248151 %noloadloss=0.68 normhkva=11 conns=[wye,wye,wye] buses=[rdt1134.1,rdt1134lv.1.0,rdt1134lv.0.2] kvs=[7.2,0.12,0.12] kvas=[10,10,10] emerghkva=15 %rs=[0.41605,0.832101,0.832101] xhl=1.08 xlt=1.08 xht=0.72
new object=transformer.tr_op_r_col_rdt1135_dash_rdt1135lv_cp_ phases=1 windings=3 %loadloss=1.248151 %noloadloss=0.68 normhkva=11 conns=[wye,wye,wye] buses=[rdt1135.1,rdt1135lv.1.0,rdt1135lv.0.2] kvs=[7.2,0.12,0.12] kvas=[10,10,10] emerghkva=15 %rs=[0.41605,0.832101,0.832101] xhl=1.08 xlt=1.08 xht=0.72
new object=transformer.tr_op_r_col_rdt1136_dash_rdt1136lv_cp_ phases=1 windings=3 %loadloss=1.248151 %noloadloss=0.68 normhkva=11 conns=[wye,wye,wye] buses=[rdt1136.1,rdt1136lv.1.0,rdt1136lv.0.2] kvs=[7.2,0.12,0.12] kvas=[10,10,10] emerghkva=15 %rs=[0.41605,0.832101,0.832101] xhl=1.08 xlt=1.08 xht=0.72
new object=transformer.tr_op_r_col_rdt1137_dash_rdt1137lv_cp_ phases=1 windings=3 %loadloss=1.248151 %noloadloss=0.68 normhkva=11 conns=[wye,wye,wye] buses=[rdt1137.2,rdt1137lv.1.0,rdt1137lv.0.2] kvs=[7.2,0.12,0.12] kvas=[10,10,10] emerghkva=15 %rs=[0.41605,0.832101,0.832101] xhl=1.08 xlt=1.08 xht=0.72
new object=transformer.tr_op_r_col_rdt1138_dash_rdt1138lv_cp_ phases=1 windings=3 %loadloss=0.798816 %noloadloss=0.472 normhkva=27.5 conns=[wye,wye,wye] buses=[rdt1138.2,rdt1138lv.1.0,rdt1138lv.0.2] kvs=[7.2,0.12,0.12] kvas=[25,25,25] emerghkva=37.5 %rs=[0.266272,0.532544,0.532544] xhl=2.4 xlt=2.4 xht=1.6
new object=transformer.tr_op_r_col_rdt1139_dash_rdt1139lv_cp_ phases=1 windings=3 %loadloss=0.798816 %noloadloss=0.37 normhkva=55 conns=[wye,wye,wye] buses=[rdt1139.2,rdt1139lv.1.0,rdt1139lv.0.2] kvs=[7.2,0.12,0.12] kvas=[50,50,50] emerghkva=75 %rs=[0.266272,0.532544,0.532544] xhl=2.4 xlt=2.4 xht=1.6
new object=transformer.tr_op_r_col_rdt1140_dash_rdt1140lv_cp_ phases=1 windings=3 %loadloss=0.798816 %noloadloss=0.472 normhkva=27.5 conns=[wye,wye,wye] buses=[rdt1140.2,rdt1140lv.1.0,rdt1140lv.0.2] kvs=[7.2,0.12,0.12] kvas=[25,25,25] emerghkva=37.5 %rs=[0.266272,0.532544,0.532544] xhl=2.4 xlt=2.4 xht=1.6
new object=transformer.tr_op_r_col_rdt1141_dash_rdt1141lv_cp_ phases=1 windings=3 %loadloss=0.798816 %noloadloss=0.472 normhkva=27.5 conns=[wye,wye,wye] buses=[rdt1141.3,rdt1141lv.1.0,rdt1141lv.0.2] kvs=[7.2,0.12,0.12] kvas=[25,25,25] emerghkva=37.5 %rs=[0.266272,0.532544,0.532544] xhl=2.4 xlt=2.4 xht=1.6
new object=transformer.tr_op_r_col_rdt1142_dash_rdt1142lv_cp_ phases=1 windings=3 %loadloss=1.248151 %noloadloss=0.68 normhkva=11 conns=[wye,wye,wye] buses=[rdt1142.1,rdt1142lv.1.0,rdt1142lv.0.2] kvs=[7.2,0.12,0.12] kvas=[10,10,10] emerghkva=15 %rs=[0.41605,0.832101,0.832101] xhl=1.08 xlt=1.08 xht=0.72
new object=transformer.tr_op_r_col_rdt1143_dash_rdt1143lv_cp_ phases=1 windings=3 %loadloss=0.798816 %noloadloss=0.37 normhkva=55 conns=[wye,wye,wye] buses=[rdt1143.3,rdt1143lv.1.0,rdt1143lv.0.2] kvs=[7.2,0.12,0.12] kvas=[50,50,50] emerghkva=75 %rs=[0.266272,0.532544,0.532544] xhl=2.4 xlt=2.4 xht=1.6
new object=transformer.tr_op_r_col_rdt1144_dash_rdt1144lv_cp_ phases=1 windings=3 %loadloss=1.248151 %noloadloss=0.68 normhkva=11 conns=[wye,wye,wye] buses=[rdt1144.2,rdt1144lv.1.0,rdt1144lv.0.2] kvs=[7.2,0.12,0.12] kvas=[10,10,10] emerghkva=15 %rs=[0.41605,0.832101,0.832101] xhl=1.08 xlt=1.08 xht=0.72
new object=transformer.tr_op_r_col_rdt1145_dash_rdt1145lv_cp_ phases=1 windings=3 %loadloss=1.248151 %noloadloss=0.68 normhkva=11 conns=[wye,wye,wye] buses=[rdt1145.2,rdt1145lv.1.0,rdt1145lv.0.2] kvs=[7.2,0.12,0.12] kvas=[10,10,10] emerghkva=15 %rs=[0.41605,0.832101,0.832101] xhl=1.08 xlt=1.08 xht=0.72
new object=transformer.tr_op_r_col_rdt1146_dash_rdt1146lv_cp_ phases=1 windings=3 %loadloss=0.798816 %noloadloss=0.37 normhkva=55 conns=[wye,wye,wye] buses=[rdt1146.3,rdt1146lv.1.0,rdt1146lv.0.2] kvs=[7.2,0.12,0.12] kvas=[50,50,50] emerghkva=75 %rs=[0.266272,0.532544,0.532544] xhl=2.4 xlt=2.4 xht=1.6
new object=transformer.tr_op_r_col_rdt1147_dash_rdt1147lv_cp_ phases=1 windings=3 %loadloss=0.798816 %noloadloss=0.37 normhkva=55 conns=[wye,wye,wye] buses=[rdt1147.2,rdt1147lv.1.0,rdt1147lv.0.2] kvs=[7.2,0.12,0.12] kvas=[50,50,50] emerghkva=75 %rs=[0.266272,0.532544,0.532544] xhl=2.4 xlt=2.4 xht=1.6
new object=transformer.tr_op_r_col_rdt1148_dash_rdt1148lv_cp_ phases=3 windings=2 %loadloss=1.74408 %noloadloss=0.6 normhkva=82.5 conns=[wye,wye] kvs=[12.47,0.48] kvas=[75,75] emerghkva=112.5 %rs=[0.87204,0.87204] buses=[rdt1148,rdt1148lv] xhl=3.24
new object=transformer.tr_op_r_col_rdt1149_dash_rdt1149lv_cp_ phases=1 windings=3 %loadloss=1.248151 %noloadloss=0.68 normhkva=11 conns=[wye,wye,wye] buses=[rdt1149.3,rdt1149lv.1.0,rdt1149lv.0.2] kvs=[7.2,0.12,0.12] kvas=[10,10,10] emerghkva=15 %rs=[0.41605,0.832101,0.832101] xhl=1.08 xlt=1.08 xht=0.72
new object=transformer.tr_op_r_col_rdt1150_dash_rdt1150lv_cp_ phases=1 windings=3 %loadloss=0.798816 %noloadloss=0.37 normhkva=55 conns=[wye,wye,wye] buses=[rdt1150.2,rdt1150lv.1.0,rdt1150lv.0.2] kvs=[7.2,0.12,0.12] kvas=[50,50,50] emerghkva=75 %rs=[0.266272,0.532544,0.532544] xhl=2.4 xlt=2.4 xht=1.6
new object=transformer.tr_op_r_col_rdt1151_dash_rdt1151lv_cp_ phases=1 windings=3 %loadloss=0.798816 %noloadloss=0.37 normhkva=55 conns=[wye,wye,wye] buses=[rdt1151.1,rdt1151lv.1.0,rdt1151lv.0.2] kvs=[7.2,0.12,0.12] kvas=[50,50,50] emerghkva=75 %rs=[0.266272,0.532544,0.532544] xhl=2.4 xlt=2.4 xht=1.6
new object=transformer.tr_op_r_col_rdt1152_dash_rdt1152lv_cp_ phases=1 windings=3 %loadloss=0.798816 %noloadloss=0.37 normhkva=55 conns=[wye,wye,wye] buses=[rdt1152.2,rdt1152lv.1.0,rdt1152lv.0.2] kvs=[7.2,0.12,0.12] kvas=[50,50,50] emerghkva=75 %rs=[0.266272,0.532544,0.532544] xhl=2.4 xlt=2.4 xht=1.6
new object=transformer.tr_op_r_col_rdt1153_dash_rdt1153lv_cp_ phases=1 windings=3 %loadloss=0.798816 %noloadloss=0.472 normhkva=27.5 conns=[wye,wye,wye] buses=[rdt1153.3,rdt1153lv.1.0,rdt1153lv.0.2] kvs=[7.2,0.12,0.12] kvas=[25,25,25] emerghkva=37.5 %rs=[0.266272,0.532544,0.532544] xhl=2.4 xlt=2.4 xht=1.6
new object=transformer.tr_op_r_col_rdt1154_dash_rdt1154lv_cp_ phases=1 windings=3 %loadloss=1.248151 %noloadloss=0.68 normhkva=11 conns=[wye,wye,wye] buses=[rdt1154.3,rdt1154lv.1.0,rdt1154lv.0.2] kvs=[7.2,0.12,0.12] kvas=[10,10,10] emerghkva=15 %rs=[0.41605,0.832101,0.832101] xhl=1.08 xlt=1.08 xht=0.72
new object=transformer.tr_op_r_col_rdt1155_dash_rdt1155lv_cp_ phases=1 windings=3 %loadloss=0.798816 %noloadloss=0.37 normhkva=55 conns=[wye,wye,wye] buses=[rdt1155.3,rdt1155lv.1.0,rdt1155lv.0.2] kvs=[7.2,0.12,0.12] kvas=[50,50,50] emerghkva=75 %rs=[0.266272,0.532544,0.532544] xhl=2.4 xlt=2.4 xht=1.6
new object=transformer.tr_op_r_col_rdt1156_dash_rdt1156lv_cp_ phases=1 windings=3 %loadloss=1.248151 %noloadloss=0.68 normhkva=11 conns=[wye,wye,wye] buses=[rdt1156.1,rdt1156lv.1.0,rdt1156lv.0.2] kvs=[7.2,0.12,0.12] kvas=[10,10,10] emerghkva=15 %rs=[0.41605,0.832101,0.832101] xhl=1.08 xlt=1.08 xht=0.72
new object=transformer.tr_op_r_col_rdt1157_dash_rdt1157lv_cp_ phases=1 windings=3 %loadloss=0.798816 %noloadloss=0.472 normhkva=27.5 conns=[wye,wye,wye] buses=[rdt1157.1,rdt1157lv.1.0,rdt1157lv.0.2] kvs=[7.2,0.12,0.12] kvas=[25,25,25] emerghkva=37.5 %rs=[0.266272,0.532544,0.532544] xhl=2.4 xlt=2.4 xht=1.6
new object=transformer.tr_op_r_col_rdt1158_dash_rdt1158lv_cp_ phases=1 windings=3 %loadloss=0.798816 %noloadloss=0.472 normhkva=27.5 conns=[wye,wye,wye] buses=[rdt1158.3,rdt1158lv.1.0,rdt1158lv.0.2] kvs=[7.2,0.12,0.12] kvas=[25,25,25] emerghkva=37.5 %rs=[0.266272,0.532544,0.532544] xhl=2.4 xlt=2.4 xht=1.6
new object=transformer.tr_op_r_col_rdt1159_dash_rdt1159lv_cp_ phases=1 windings=3 %loadloss=0.798816 %noloadloss=0.472 normhkva=27.5 conns=[wye,wye,wye] buses=[rdt1159.3,rdt1159lv.1.0,rdt1159lv.0.2] kvs=[7.2,0.12,0.12] kvas=[25,25,25] emerghkva=37.5 %rs=[0.266272,0.532544,0.532544] xhl=2.4 xlt=2.4 xht=1.6
new object=transformer.tr_op_r_col_rdt1160_dash_rdt1160lv_cp_ phases=3 windings=2 %loadloss=1.74408 %noloadloss=0.6 normhkva=82.5 conns=[wye,wye] kvs=[12.47,0.48] kvas=[75,75] emerghkva=112.5 %rs=[0.87204,0.87204] buses=[rdt1160,rdt1160lv] xhl=3.24
new object=transformer.tr_op_r_col_rdt1161_dash_rdt1161lv_cp_ phases=1 windings=3 %loadloss=1.248151 %noloadloss=0.68 normhkva=11 conns=[wye,wye,wye] buses=[rdt1161.1,rdt1161lv.1.0,rdt1161lv.0.2] kvs=[7.2,0.12,0.12] kvas=[10,10,10] emerghkva=15 %rs=[0.41605,0.832101,0.832101] xhl=1.08 xlt=1.08 xht=0.72
new object=transformer.tr_op_r_col_rdt1162_dash_rdt1162lv_cp_ phases=1 windings=3 %loadloss=1.248151 %noloadloss=0.68 normhkva=11 conns=[wye,wye,wye] buses=[rdt1162.2,rdt1162lv.1.0,rdt1162lv.0.2] kvs=[7.2,0.12,0.12] kvas=[10,10,10] emerghkva=15 %rs=[0.41605,0.832101,0.832101] xhl=1.08 xlt=1.08 xht=0.72
new object=transformer.tr_op_r_col_rdt1163_dash_rdt1163lv_cp_ phases=1 windings=3 %loadloss=1.248151 %noloadloss=0.68 normhkva=11 conns=[wye,wye,wye] buses=[rdt1163.1,rdt1163lv.1.0,rdt1163lv.0.2] kvs=[7.2,0.12,0.12] kvas=[10,10,10] emerghkva=15 %rs=[0.41605,0.832101,0.832101] xhl=1.08 xlt=1.08 xht=0.72
new object=transformer.tr_op_r_col_rdt1164_dash_rdt1164lv_cp_ phases=1 windings=3 %loadloss=1.248151 %noloadloss=0.68 normhkva=11 conns=[wye,wye,wye] buses=[rdt1164.2,rdt1164lv.1.0,rdt1164lv.0.2] kvs=[7.2,0.12,0.12] kvas=[10,10,10] emerghkva=15 %rs=[0.41605,0.832101,0.832101] xhl=1.08 xlt=1.08 xht=0.72
new object=transformer.tr_op_r_col_rdt1165_dash_rdt1165lv_cp_ phases=1 windings=3 %loadloss=0.798816 %noloadloss=0.472 normhkva=27.5 conns=[wye,wye,wye] buses=[rdt1165.3,rdt1165lv.1.0,rdt1165lv.0.2] kvs=[7.2,0.12,0.12] kvas=[25,25,25] emerghkva=37.5 %rs=[0.266272,0.532544,0.532544] xhl=2.4 xlt=2.4 xht=1.6
new object=transformer.tr_op_r_col_rdt1166_dash_rdt1166lv_cp_ phases=1 windings=3 %loadloss=0.798816 %noloadloss=0.472 normhkva=27.5 conns=[wye,wye,wye] buses=[rdt1166.2,rdt1166lv.1.0,rdt1166lv.0.2] kvs=[7.2,0.12,0.12] kvas=[25,25,25] emerghkva=37.5 %rs=[0.266272,0.532544,0.532544] xhl=2.4 xlt=2.4 xht=1.6
new object=transformer.tr_op_r_col_rdt1167_dash_rdt1167lv_cp_ phases=1 windings=3 %loadloss=0.798816 %noloadloss=0.472 normhkva=27.5 conns=[wye,wye,wye] buses=[rdt1167.2,rdt1167lv.1.0,rdt1167lv.0.2] kvs=[7.2,0.12,0.12] kvas=[25,25,25] emerghkva=37.5 %rs=[0.266272,0.532544,0.532544] xhl=2.4 xlt=2.4 xht=1.6
new object=transformer.tr_op_r_col_rdt1168_dash_rdt1168lv_cp_ phases=1 windings=3 %loadloss=0.798816 %noloadloss=0.37 normhkva=55 conns=[wye,wye,wye] buses=[rdt1168.3,rdt1168lv.1.0,rdt1168lv.0.2] kvs=[7.2,0.12,0.12] kvas=[50,50,50] emerghkva=75 %rs=[0.266272,0.532544,0.532544] xhl=2.4 xlt=2.4 xht=1.6
new object=transformer.tr_op_r_col_rdt1169_dash_rdt1169lv_cp_ phases=1 windings=3 %loadloss=0.798816 %noloadloss=0.37 normhkva=55 conns=[wye,wye,wye] buses=[rdt1169.2,rdt1169lv.1.0,rdt1169lv.0.2] kvs=[7.2,0.12,0.12] kvas=[50,50,50] emerghkva=75 %rs=[0.266272,0.532544,0.532544] xhl=2.4 xlt=2.4 xht=1.6
new object=transformer.tr_op_r_col_rdt1170_dash_rdt1170lv_cp_ phases=1 windings=3 %loadloss=0.798816 %noloadloss=0.472 normhkva=27.5 conns=[wye,wye,wye] buses=[rdt1170.3,rdt1170lv.1.0,rdt1170lv.0.2] kvs=[7.2,0.12,0.12] kvas=[25,25,25] emerghkva=37.5 %rs=[0.266272,0.532544,0.532544] xhl=2.4 xlt=2.4 xht=1.6
new object=transformer.tr_op_r_col_rdt1171_dash_rdt1171lv_cp_ phases=1 windings=3 %loadloss=0.798816 %noloadloss=0.472 normhkva=27.5 conns=[wye,wye,wye] buses=[rdt1171.1,rdt1171lv.1.0,rdt1171lv.0.2] kvs=[7.2,0.12,0.12] kvas=[25,25,25] emerghkva=37.5 %rs=[0.266272,0.532544,0.532544] xhl=2.4 xlt=2.4 xht=1.6
new object=transformer.tr_op_r_col_rdt1172_dash_rdt1172lv_cp_ phases=1 windings=3 %loadloss=1.248151 %noloadloss=0.68 normhkva=11 conns=[wye,wye,wye] buses=[rdt1172.2,rdt1172lv.1.0,rdt1172lv.0.2] kvs=[7.2,0.12,0.12] kvas=[10,10,10] emerghkva=15 %rs=[0.41605,0.832101,0.832101] xhl=1.08 xlt=1.08 xht=0.72
new object=transformer.tr_op_r_col_rdt1173_dash_rdt1173lv_cp_ phases=1 windings=3 %loadloss=0.798816 %noloadloss=0.472 normhkva=27.5 conns=[wye,wye,wye] buses=[rdt1173.1,rdt1173lv.1.0,rdt1173lv.0.2] kvs=[7.2,0.12,0.12] kvas=[25,25,25] emerghkva=37.5 %rs=[0.266272,0.532544,0.532544] xhl=2.4 xlt=2.4 xht=1.6
new object=transformer.tr_op_r_col_rdt1174_dash_rdt1174lv_cp_ phases=1 windings=3 %loadloss=0.798816 %noloadloss=0.472 normhkva=27.5 conns=[wye,wye,wye] buses=[rdt1174.2,rdt1174lv.1.0,rdt1174lv.0.2] kvs=[7.2,0.12,0.12] kvas=[25,25,25] emerghkva=37.5 %rs=[0.266272,0.532544,0.532544] xhl=2.4 xlt=2.4 xht=1.6
new object=transformer.tr_op_r_col_rdt1175_dash_rdt1175lv_cp_ phases=1 windings=3 %loadloss=1.248151 %noloadloss=0.68 normhkva=11 conns=[wye,wye,wye] buses=[rdt1175.1,rdt1175lv.1.0,rdt1175lv.0.2] kvs=[7.2,0.12,0.12] kvas=[10,10,10] emerghkva=15 %rs=[0.41605,0.832101,0.832101] xhl=1.08 xlt=1.08 xht=0.72
new object=transformer.tr_op_r_col_rdt1176_dash_rdt1176lv_cp_ phases=1 windings=3 %loadloss=0.798816 %noloadloss=0.472 normhkva=27.5 conns=[wye,wye,wye] buses=[rdt1176.1,rdt1176lv.1.0,rdt1176lv.0.2] kvs=[7.2,0.12,0.12] kvas=[25,25,25] emerghkva=37.5 %rs=[0.266272,0.532544,0.532544] xhl=2.4 xlt=2.4 xht=1.6
new object=transformer.tr_op_r_col_rdt1177_dash_rdt1177lv_cp_ phases=1 windings=3 %loadloss=0.798816 %noloadloss=0.37 normhkva=55 conns=[wye,wye,wye] buses=[rdt1177.3,rdt1177lv.1.0,rdt1177lv.0.2] kvs=[7.2,0.12,0.12] kvas=[50,50,50] emerghkva=75 %rs=[0.266272,0.532544,0.532544] xhl=2.4 xlt=2.4 xht=1.6
new object=transformer.tr_op_r_col_rdt1178_dash_rdt1178lv_cp_ phases=1 windings=3 %loadloss=1.248151 %noloadloss=0.68 normhkva=11 conns=[wye,wye,wye] buses=[rdt1178.1,rdt1178lv.1.0,rdt1178lv.0.2] kvs=[7.2,0.12,0.12] kvas=[10,10,10] emerghkva=15 %rs=[0.41605,0.832101,0.832101] xhl=1.08 xlt=1.08 xht=0.72
new object=transformer.tr_op_r_col_rdt1179_dash_rdt1179lv_cp_ phases=1 windings=3 %loadloss=1.248151 %noloadloss=0.68 normhkva=11 conns=[wye,wye,wye] buses=[rdt1179.3,rdt1179lv.1.0,rdt1179lv.0.2] kvs=[7.2,0.12,0.12] kvas=[10,10,10] emerghkva=15 %rs=[0.41605,0.832101,0.832101] xhl=1.08 xlt=1.08 xht=0.72
new object=transformer.tr_op_r_col_rdt1180_dash_rdt1180lv_cp_ phases=1 windings=3 %loadloss=0.798816 %noloadloss=0.472 normhkva=27.5 conns=[wye,wye,wye] buses=[rdt1180.3,rdt1180lv.1.0,rdt1180lv.0.2] kvs=[7.2,0.12,0.12] kvas=[25,25,25] emerghkva=37.5 %rs=[0.266272,0.532544,0.532544] xhl=2.4 xlt=2.4 xht=1.6
new object=transformer.tr_op_r_col_rdt1181_dash_rdt1181lv_cp_ phases=1 windings=3 %loadloss=1.248151 %noloadloss=0.68 normhkva=11 conns=[wye,wye,wye] buses=[rdt1181.3,rdt1181lv.1.0,rdt1181lv.0.2] kvs=[7.2,0.12,0.12] kvas=[10,10,10] emerghkva=15 %rs=[0.41605,0.832101,0.832101] xhl=1.08 xlt=1.08 xht=0.72
new object=transformer.tr_op_r_col_rdt1182_dash_rdt1182lv_cp_ phases=1 windings=3 %loadloss=1.248151 %noloadloss=0.68 normhkva=11 conns=[wye,wye,wye] buses=[rdt1182.1,rdt1182lv.1.0,rdt1182lv.0.2] kvs=[7.2,0.12,0.12] kvas=[10,10,10] emerghkva=15 %rs=[0.41605,0.832101,0.832101] xhl=1.08 xlt=1.08 xht=0.72
new object=transformer.tr_op_r_col_rdt1183_dash_rdt1183lv_cp_ phases=1 windings=3 %loadloss=1.248151 %noloadloss=0.68 normhkva=11 conns=[wye,wye,wye] buses=[rdt1183.3,rdt1183lv.1.0,rdt1183lv.0.2] kvs=[7.2,0.12,0.12] kvas=[10,10,10] emerghkva=15 %rs=[0.41605,0.832101,0.832101] xhl=1.08 xlt=1.08 xht=0.72
new object=transformer.tr_op_r_col_rdt1184_dash_rdt1184lv_cp_ phases=1 windings=3 %loadloss=0.798816 %noloadloss=0.37 normhkva=55 conns=[wye,wye,wye] buses=[rdt1184.1,rdt1184lv.1.0,rdt1184lv.0.2] kvs=[7.2,0.12,0.12] kvas=[50,50,50] emerghkva=75 %rs=[0.266272,0.532544,0.532544] xhl=2.4 xlt=2.4 xht=1.6
new object=transformer.tr_op_r_col_rdt1185_dash_rdt1185lv_cp_ phases=1 windings=3 %loadloss=0.798816 %noloadloss=0.472 normhkva=27.5 conns=[wye,wye,wye] buses=[rdt1185.2,rdt1185lv.1.0,rdt1185lv.0.2] kvs=[7.2,0.12,0.12] kvas=[25,25,25] emerghkva=37.5 %rs=[0.266272,0.532544,0.532544] xhl=2.4 xlt=2.4 xht=1.6
new object=transformer.tr_op_r_col_rdt1186_dash_rdt1186lv_cp_ phases=1 windings=3 %loadloss=1.248151 %noloadloss=0.68 normhkva=11 conns=[wye,wye,wye] buses=[rdt1186.3,rdt1186lv.1.0,rdt1186lv.0.2] kvs=[7.2,0.12,0.12] kvas=[10,10,10] emerghkva=15 %rs=[0.41605,0.832101,0.832101] xhl=1.08 xlt=1.08 xht=0.72
new object=transformer.tr_op_r_col_rdt1187_dash_rdt1187lv_cp_ phases=1 windings=3 %loadloss=0.798816 %noloadloss=0.472 normhkva=27.5 conns=[wye,wye,wye] buses=[rdt1187.1,rdt1187lv.1.0,rdt1187lv.0.2] kvs=[7.2,0.12,0.12] kvas=[25,25,25] emerghkva=37.5 %rs=[0.266272,0.532544,0.532544] xhl=2.4 xlt=2.4 xht=1.6
new object=transformer.tr_op_r_col_rdt1188_dash_rdt1188lv_cp_ phases=1 windings=3 %loadloss=1.248151 %noloadloss=0.68 normhkva=11 conns=[wye,wye,wye] buses=[rdt1188.1,rdt1188lv.1.0,rdt1188lv.0.2] kvs=[7.2,0.12,0.12] kvas=[10,10,10] emerghkva=15 %rs=[0.41605,0.832101,0.832101] xhl=1.08 xlt=1.08 xht=0.72
new object=transformer.tr_op_r_col_rdt1189_dash_rdt1189lv_cp_ phases=1 windings=3 %loadloss=0.798816 %noloadloss=0.472 normhkva=27.5 conns=[wye,wye,wye] buses=[rdt1189.2,rdt1189lv.1.0,rdt1189lv.0.2] kvs=[7.2,0.12,0.12] kvas=[25,25,25] emerghkva=37.5 %rs=[0.266272,0.532544,0.532544] xhl=2.4 xlt=2.4 xht=1.6
new object=transformer.tr_op_r_col_rdt1190_dash_rdt1190lv_cp_ phases=1 windings=3 %loadloss=0.798816 %noloadloss=0.472 normhkva=27.5 conns=[wye,wye,wye] buses=[rdt1190.1,rdt1190lv.1.0,rdt1190lv.0.2] kvs=[7.2,0.12,0.12] kvas=[25,25,25] emerghkva=37.5 %rs=[0.266272,0.532544,0.532544] xhl=2.4 xlt=2.4 xht=1.6
new object=transformer.tr_op_r_col_rdt1191_dash_rdt1191lv_cp_ phases=1 windings=3 %loadloss=1.248151 %noloadloss=0.68 normhkva=11 conns=[wye,wye,wye] buses=[rdt1191.2,rdt1191lv.1.0,rdt1191lv.0.2] kvs=[7.2,0.12,0.12] kvas=[10,10,10] emerghkva=15 %rs=[0.41605,0.832101,0.832101] xhl=1.08 xlt=1.08 xht=0.72
new object=transformer.tr_op_r_col_rdt1192_dash_rdt1192lv_cp_ phases=1 windings=3 %loadloss=0.798816 %noloadloss=0.472 normhkva=27.5 conns=[wye,wye,wye] buses=[rdt1192.3,rdt1192lv.1.0,rdt1192lv.0.2] kvs=[7.2,0.12,0.12] kvas=[25,25,25] emerghkva=37.5 %rs=[0.266272,0.532544,0.532544] xhl=2.4 xlt=2.4 xht=1.6
new object=transformer.tr_op_r_col_rdt1193_dash_rdt1193lv_cp_ phases=1 windings=3 %loadloss=1.248151 %noloadloss=0.68 normhkva=11 conns=[wye,wye,wye] buses=[rdt1193.3,rdt1193lv.1.0,rdt1193lv.0.2] kvs=[7.2,0.12,0.12] kvas=[10,10,10] emerghkva=15 %rs=[0.41605,0.832101,0.832101] xhl=1.08 xlt=1.08 xht=0.72
new object=transformer.tr_op_r_col_rdt1194_dash_rdt1194lv_cp_ phases=1 windings=3 %loadloss=1.248151 %noloadloss=0.68 normhkva=11 conns=[wye,wye,wye] buses=[rdt1194.1,rdt1194lv.1.0,rdt1194lv.0.2] kvs=[7.2,0.12,0.12] kvas=[10,10,10] emerghkva=15 %rs=[0.41605,0.832101,0.832101] xhl=1.08 xlt=1.08 xht=0.72
new object=transformer.tr_op_r_col_rdt1195_dash_rdt1195lv_cp_ phases=1 windings=3 %loadloss=0.798816 %noloadloss=0.472 normhkva=27.5 conns=[wye,wye,wye] buses=[rdt1195.2,rdt1195lv.1.0,rdt1195lv.0.2] kvs=[7.2,0.12,0.12] kvas=[25,25,25] emerghkva=37.5 %rs=[0.266272,0.532544,0.532544] xhl=2.4 xlt=2.4 xht=1.6
new object=transformer.tr_op_r_col_rdt1196_dash_rdt1196lv_cp_ phases=1 windings=3 %loadloss=0.798816 %noloadloss=0.472 normhkva=27.5 conns=[wye,wye,wye] buses=[rdt1196.1,rdt1196lv.1.0,rdt1196lv.0.2] kvs=[7.2,0.12,0.12] kvas=[25,25,25] emerghkva=37.5 %rs=[0.266272,0.532544,0.532544] xhl=2.4 xlt=2.4 xht=1.6
new object=transformer.tr_op_r_col_rdt1197_dash_rdt1197lv_cp_ phases=1 windings=3 %loadloss=1.248151 %noloadloss=0.68 normhkva=11 conns=[wye,wye,wye] buses=[rdt1197.1,rdt1197lv.1.0,rdt1197lv.0.2] kvs=[7.2,0.12,0.12] kvas=[10,10,10] emerghkva=15 %rs=[0.41605,0.832101,0.832101] xhl=1.08 xlt=1.08 xht=0.72
new object=transformer.tr_op_r_col_rdt1198_dash_rdt1198lv_cp_ phases=1 windings=3 %loadloss=1.248151 %noloadloss=0.68 normhkva=11 conns=[wye,wye,wye] buses=[rdt1198.2,rdt1198lv.1.0,rdt1198lv.0.2] kvs=[7.2,0.12,0.12] kvas=[10,10,10] emerghkva=15 %rs=[0.41605,0.832101,0.832101] xhl=1.08 xlt=1.08 xht=0.72
new object=transformer.tr_op_r_col_rdt1199_dash_rdt1199lv_cp_ phases=1 windings=3 %loadloss=1.248151 %noloadloss=0.68 normhkva=11 conns=[wye,wye,wye] buses=[rdt1199.3,rdt1199lv.1.0,rdt1199lv.0.2] kvs=[7.2,0.12,0.12] kvas=[10,10,10] emerghkva=15 %rs=[0.41605,0.832101,0.832101] xhl=1.08 xlt=1.08 xht=0.72
new object=transformer.tr_op_r_col_rdt1200_dash_rdt1200lv_cp_ phases=1 windings=3 %loadloss=1.248151 %noloadloss=0.68 normhkva=11 conns=[wye,wye,wye] buses=[rdt1200.3,rdt1200lv.1.0,rdt1200lv.0.2] kvs=[7.2,0.12,0.12] kvas=[10,10,10] emerghkva=15 %rs=[0.41605,0.832101,0.832101] xhl=1.08 xlt=1.08 xht=0.72
new object=transformer.tr_op_r_col_rdt1201_dash_rdt1201lv_cp_ phases=3 windings=2 %loadloss=2.1568 %noloadloss=0.516667 normhkva=165 conns=[wye,wye] kvs=[12.47,0.48] kvas=[150,150] emerghkva=225 %rs=[1.0784,1.0784] buses=[rdt1201,rdt1201lv] xhl=3.39
...